Version 4
SHEET 1 880 776
WIRE 160 -48 160 -80
WIRE 112 -16 64 -16
WIRE 64 0 64 -16
WIRE 64 0 -32 0
WIRE 112 0 80 0
WIRE 288 0 224 0
WIRE 112 16 96 16
WIRE 288 48 288 0
WIRE 256 80 256 -80
WIRE 336 80 320 80
WIRE 560 80 336 80
WIRE 160 128 160 48
WIRE 80 144 80 0
WIRE 80 144 -32 144
WIRE 64 160 64 0
WIRE 112 160 64 160
WIRE 80 176 80 144
WIRE 112 176 80 176
WIRE 288 176 288 112
WIRE 288 176 224 176
WIRE 96 192 96 16
WIRE 112 192 96 192
WIRE 96 288 96 192
WIRE 96 288 -32 288
WIRE 160 288 160 224
FLAG 160 -160 0
FLAG -112 0 0
FLAG -112 144 0
FLAG 560 80 V_out4
FLAG 256 -160 0
FLAG -112 288 0
FLAG 160 288 0
FLAG 336 144 0
SYMBOL 3_bit_dac 176 0 R0
SYMATTR InstName X1
SYMBOL 3_bit_dac 176 176 R0
SYMATTR InstName X2
SYMBOL switch 288 80 R0
SYMATTR InstName X5
SYMBOL voltage 160 -64 R180
WINDOW 0 24 96 Left 2
WINDOW 3 24 16 Left 2
WINDOW 123 0 0 Left 0
WINDOW 39 0 0 Left 0
SYMATTR InstName V1
SYMATTR Value 3.3
SYMBOL voltage -16 0 R90
WINDOW 0 -32 56 VBottom 2
WINDOW 3 32 56 VTop 2
WINDOW 123 0 0 Left 0
WINDOW 39 0 0 Left 0
SYMATTR InstName D0
SYMATTR Value PULSE(0 1.8 0.1m 60p 60p 0.1m 0.2m 100)
SYMBOL voltage -16 144 R90
WINDOW 0 -32 56 VBottom 2
WINDOW 3 32 56 VTop 2
WINDOW 123 0 0 Left 0
WINDOW 39 0 0 Left 0
SYMATTR InstName D1
SYMATTR Value PULSE(0 1.8  0.2m  60p 60p 0.2m 0.4m 100)
SYMBOL voltage 256 -64 R180
WINDOW 0 24 96 Left 2
WINDOW 3 -218 147 Left 2
WINDOW 123 0 0 Left 0
WINDOW 39 0 0 Left 0
SYMATTR InstName D3
SYMATTR Value PULSE(0 1.8 0.8m 60p 60p 0.8m 1.6m 100)
SYMBOL voltage -16 288 R90
WINDOW 0 -32 56 VBottom 2
WINDOW 3 32 56 VTop 2
WINDOW 123 0 0 Left 0
WINDOW 39 0 0 Left 0
SYMATTR InstName D2
SYMATTR Value PULSE(0 1.8 0.4m 60p 60p 0.4m 0.8m 100)
SYMBOL cap 320 80 R0
WINDOW 3 60 37 Left 2
SYMATTR Value 4.1332221p
SYMATTR InstName C1
TEXT -256 208 Left 2 !.tran 3.2m
TEXT -712 760 Left 2 ;4.1332221p
