* SPICE3 file created from 6BitDac.ext - technology: scmos
.model polyResistor R ( TC1=0 TC2=0 RSH=7.7 DEFW=1.E-7 NARROW=0.0 TNOM=27)

.model pfet PMOS (LEVEL=8 VERSION=3.2 TNOM=27 TOX=4.1E-9 XJ=1E-7 NCH=4.1589E17 VTH0=-0.3938813 K1=0.5479015 K2=0.0360586 K3=0.0993095 K3B=5.7086622 W0=1E-6 NLX=1.313191E-7 DVT0W=0 DVT1W=0 DVT2W=0 DVT0=0.4911363 DVT1=0.2227356 DVT2=0.1 U0=115.6852975 UA=1.505832E-9 UB=1E-21 UC=-1E-10 VSAT=1.329694E5 A0=1.7590478 AGS=0.3641621 B0=3.427126E-7 B1=1.062928E-6 KETA=0.0134667 A1=0.6859506 A2=0.3506788 RDSW=168.5705677 PRWG=0.5 PRWB=-0.4987371 WR=1 WINT=0 LINT=3.028832E-8 XL=0 XW=-1E-8 DWG=-2.349633E-8 DWB=-7.152486E-9 VOFF=-0.0994037 NFACTOR=1.9424315 CIT=0 CDSC=2.4E-4 CDSCD=0 CDSCB=0 ETA0=0.0608072 ETAB=-0.0426148 DSUB=0.7343015 PCLM=3.2579974 PDIBLC1=7.229527E-6 PDIBLC2=0.025389 PDIBLCB=-1E-3 DROUT=0 PSCBE1=1.454878E10 PSCBE2=4.202027E-9 PVAG=15 DELTA=0.01 RSH=7.8 MOBMOD=1 PRT=0 UTE=-1.5 KT1=-0.11 KT1L=0 KT2=0.022 UA1=4.31E-9 UB1=-7.61E-18 UC1=-5.6E-11 AT=3.3E4 WL=0 WLN=1 WW=0 WWN=1 WWL=0 LL=0 LLN=1 LW=0 LWN=1 LWL=0 CAPMOD=2 XPART=0.5 CGDO=6.32E-10 CGSO=6.32E-10 CGBO=1E-12 CJ=1.172138E-3 PB=0.8421173 MJ=0.4109788 CJSW=2.242609E-10 PBSW=0.8 MJSW=0.3752089 CJSWG=4.22E-10 PBSWG=0.8 MJSWG=0.3752089 CF=0 PVTH0=1.888482E-3 PRDSW=11.5315407 PK2=1.559399E-3 WKETA=0.0319301 LKETA=2.955547E-3 PU0=-1.1105313 PUA=-4.62102E-11 PUB=1E-21 PVSAT=50 PETA0=1E-4 PKETA=-4.346368E-3)

.model nfet NMOS (LEVEL=8 VERSION=3.2 TNOM=27 TOX=4.1E-9 XJ=1E-7 NCH=2.3549E17 VTH0=0.3823463 K1=0.5810697 K2=4.774618E-3 K3=0.0431669 K3B=1.1498346 W0=1E-7 NLX=1.910552E-7 DVT0W=0 DVT1W=0 DVT2W=0 DVT0=1.2894824 DVT1=0.3622063 DVT2=0.0713729 U0=280.633249 UA=-1.208537E-9 UB=2.158625E-18 UC=5.342807E-11 VSAT=9.366802E4 A0=1.7593146 AGS=0.3939741 B0=-6.413949E-9 B1=-1E-7 KETA=-5.180424E-4 A1=0 A2=1 RDSW=105.5517558 PRWG=0.5 PRWB=-0.1998871 WR=1 WINT=7.904732E-10 LINT=1.571424E-8 XL=0 XW=-1E-8 DWG=1.297221E-9 DWB=1.479041E-9 VOFF=-0.0955434 NFACTOR=2.4358891 CIT=0 CDSC=2.4E-4 CDSCD=0 CDSCB=0 ETA0=3.104851E-3 ETAB=-2.512384E-5 DSUB=0.0167075 PCLM=0.8073191 PDIBLC1=0.1666161 PDIBLC2=3.112892E-3 PDIBLCB=-0.1 DROUT=0.7875618 PSCBE1=8E10 PSCBE2=9.213635E-10 PVAG=3.85243E-3 DELTA=0.01 RSH=6.7 MOBMOD=1 PRT=0 UTE=-1.5 KT1=-0.11 KT1L=0 KT2=0.022 UA1=4.31E-9 UB1=-7.61E-18 UC1=-5.6E-11 AT=3.3E4 WL=0 WLN=1 WW=0 WWN=1 WWL=0 LL=0 LLN=1 LW=0 LWN=1 LWL=0 CAPMOD=2 XPART=0.5 CGDO=7.08E-10 CGSO=7.08E-10 CGBO=1E-12 CJ=9.68858E-4 PB=0.8 MJ=0.3864502 CJSW=2.512138E-10 PBSW=0.809286 MJSW=0.1060414 CJSWG=3.3E-10 PBSWG=0.809286 MJSWG=0.1060414 CF=0 PVTH0=-1.192722E-3 PRDSW=-5 PK2=6.450505E-5 WKETA=-4.27294E-4 LKETA=-0.0104078 PU0=6.3268729 PUA=2.226552E-11 PUB=0 PVSAT=969.1480157 PETA0=1E-4 PKETA=-1.049509E-3)
.option scale=0.1u

M1000 switchNew_0/a_86_24# D5 VA VA pfet w=10 l=2
+  ad=70 pd=34 as=8820 ps=4284
M1001 switchNew_0/a_105_21# switchNew_0/a_86_24# VA VA pfet w=10 l=2
+  ad=70 pd=34 as=0 ps=0
M1002 V_out6 switchNew_0/a_86_24# 5BitDac_0/V_out5 5BitDac_0/V_out5 pfet w=10 l=2
+  ad=140 pd=68 as=210 ps=102
M1003 5BitDac_0/V_out5 switchNew_0/a_105_21# V_out6 gnd nfet w=5 l=2
+  ad=137 pd=104 as=86 ps=64
M1004 switchNew_0/a_86_24# D5 gnd gnd nfet w=5 l=2
+  ad=35 pd=24 as=4445 ps=3048
M1005 switchNew_0/a_105_21# switchNew_0/a_86_24# gnd gnd nfet w=5 l=2
+  ad=35 pd=24 as=0 ps=0
M1006 V_out6 switchNew_0/a_86_24# 5BitDac_1/V_out5 gnd nfet w=5 l=2
+  ad=0 pd=0 as=121 ps=88
M1007 V_out6 switchNew_0/a_105_21# 5BitDac_1/V_out5 V_out6 pfet w=10 l=2
+  ad=0 pd=0 as=210 ps=102
M1008 5BitDac_1/switchNew_0/a_86_24# D4 VA VA pfet w=10 l=2
+  ad=70 pd=34 as=0 ps=0
M1009 5BitDac_1/switchNew_0/a_105_21# 5BitDac_1/switchNew_0/a_86_24# VA VA pfet w=10 l=2
+  ad=70 pd=34 as=0 ps=0
M1010 5BitDac_1/V_out5 5BitDac_1/switchNew_0/a_86_24# 5BitDac_1/4BitDac_0/V_out4 5BitDac_1/4BitDac_0/V_out4 pfet w=10 l=2
+  ad=0 pd=0 as=210 ps=102
M1011 5BitDac_1/4BitDac_0/V_out4 5BitDac_1/switchNew_0/a_105_21# 5BitDac_1/V_out5 gnd nfet w=5 l=2
+  ad=137 pd=104 as=0 ps=0
M1012 5BitDac_1/switchNew_0/a_86_24# D4 gnd gnd nfet w=5 l=2
+  ad=35 pd=24 as=0 ps=0
M1013 5BitDac_1/switchNew_0/a_105_21# 5BitDac_1/switchNew_0/a_86_24# gnd gnd nfet w=5 l=2
+  ad=35 pd=24 as=0 ps=0
M1014 5BitDac_1/V_out5 5BitDac_1/switchNew_0/a_86_24# 5BitDac_1/4BitDac_1/V_out4 gnd nfet w=5 l=2
+  ad=0 pd=0 as=121 ps=88
M1015 5BitDac_1/V_out5 5BitDac_1/switchNew_0/a_105_21# 5BitDac_1/4BitDac_1/V_out4 5BitDac_1/V_out5 pfet w=10 l=2
+  ad=0 pd=0 as=210 ps=102
M1016 5BitDac_1/4BitDac_1/3BitDac_1/2BitDac_1/switchNew_2/a_86_24# D1 VA VA pfet w=10 l=2
+  ad=70 pd=34 as=0 ps=0
M1017 5BitDac_1/4BitDac_1/3BitDac_1/2BitDac_1/switchNew_2/a_105_21# 5BitDac_1/4BitDac_1/3BitDac_1/2BitDac_1/switchNew_2/a_86_24# VA VA pfet w=10 l=2
+  ad=70 pd=34 as=0 ps=0
M1018 5BitDac_1/4BitDac_1/3BitDac_1/2BitDac_1/V_out2 5BitDac_1/4BitDac_1/3BitDac_1/2BitDac_1/switchNew_2/a_86_24# 5BitDac_1/4BitDac_1/3BitDac_1/2BitDac_1/m1_201_n40# 5BitDac_1/4BitDac_1/3BitDac_1/2BitDac_1/m1_201_n40# pfet w=10 l=2
+  ad=210 pd=102 as=210 ps=102
M1019 5BitDac_1/4BitDac_1/3BitDac_1/2BitDac_1/m1_201_n40# 5BitDac_1/4BitDac_1/3BitDac_1/2BitDac_1/switchNew_2/a_105_21# 5BitDac_1/4BitDac_1/3BitDac_1/2BitDac_1/V_out2 gnd nfet w=5 l=2
+  ad=137 pd=104 as=121 ps=88
M1020 5BitDac_1/4BitDac_1/3BitDac_1/2BitDac_1/switchNew_2/a_86_24# D1 gnd gnd nfet w=5 l=2
+  ad=35 pd=24 as=0 ps=0
M1021 5BitDac_1/4BitDac_1/3BitDac_1/2BitDac_1/switchNew_2/a_105_21# 5BitDac_1/4BitDac_1/3BitDac_1/2BitDac_1/switchNew_2/a_86_24# gnd gnd nfet w=5 l=2
+  ad=35 pd=24 as=0 ps=0
M1022 5BitDac_1/4BitDac_1/3BitDac_1/2BitDac_1/V_out2 5BitDac_1/4BitDac_1/3BitDac_1/2BitDac_1/switchNew_2/a_86_24# 5BitDac_1/4BitDac_1/3BitDac_1/2BitDac_1/m1_198_n130# gnd nfet w=5 l=2
+  ad=0 pd=0 as=121 ps=88
M1023 5BitDac_1/4BitDac_1/3BitDac_1/2BitDac_1/V_out2 5BitDac_1/4BitDac_1/3BitDac_1/2BitDac_1/switchNew_2/a_105_21# 5BitDac_1/4BitDac_1/3BitDac_1/2BitDac_1/m1_198_n130# 5BitDac_1/4BitDac_1/3BitDac_1/2BitDac_1/V_out2 pfet w=10 l=2
+  ad=0 pd=0 as=210 ps=102
M1024 5BitDac_1/4BitDac_1/3BitDac_1/2BitDac_1/switchNew_1/a_86_24# D0 VA VA pfet w=10 l=2
+  ad=70 pd=34 as=0 ps=0
M1025 5BitDac_1/4BitDac_1/3BitDac_1/2BitDac_1/switchNew_1/a_105_21# 5BitDac_1/4BitDac_1/3BitDac_1/2BitDac_1/switchNew_1/a_86_24# VA VA pfet w=10 l=2
+  ad=70 pd=34 as=0 ps=0
M1026 5BitDac_1/4BitDac_1/3BitDac_1/2BitDac_1/m1_198_n130# 5BitDac_1/4BitDac_1/3BitDac_1/2BitDac_1/switchNew_1/a_86_24# 5BitDac_1/4BitDac_1/3BitDac_1/2BitDac_1/gamma 5BitDac_1/4BitDac_1/3BitDac_1/2BitDac_1/gamma pfet w=10 l=2
+  ad=0 pd=0 as=70 ps=34
M1027 5BitDac_1/4BitDac_1/3BitDac_1/2BitDac_1/gamma 5BitDac_1/4BitDac_1/3BitDac_1/2BitDac_1/switchNew_1/a_105_21# 5BitDac_1/4BitDac_1/3BitDac_1/2BitDac_1/m1_198_n130# gnd nfet w=5 l=2
+  ad=51 pd=40 as=0 ps=0
M1028 5BitDac_1/4BitDac_1/3BitDac_1/2BitDac_1/switchNew_1/a_86_24# D0 gnd gnd nfet w=5 l=2
+  ad=35 pd=24 as=0 ps=0
M1029 5BitDac_1/4BitDac_1/3BitDac_1/2BitDac_1/switchNew_1/a_105_21# 5BitDac_1/4BitDac_1/3BitDac_1/2BitDac_1/switchNew_1/a_86_24# gnd gnd nfet w=5 l=2
+  ad=35 pd=24 as=0 ps=0
M1030 5BitDac_1/4BitDac_1/3BitDac_1/2BitDac_1/m1_198_n130# 5BitDac_1/4BitDac_1/3BitDac_1/2BitDac_1/switchNew_1/a_86_24# gnd gnd nfet w=5 l=2
+  ad=0 pd=0 as=0 ps=0
M1031 5BitDac_1/4BitDac_1/3BitDac_1/2BitDac_1/m1_198_n130# 5BitDac_1/4BitDac_1/3BitDac_1/2BitDac_1/switchNew_1/a_105_21# gnd 5BitDac_1/4BitDac_1/3BitDac_1/2BitDac_1/m1_198_n130# pfet w=10 l=2
+  ad=0 pd=0 as=3094 ps=3058
R0 5BitDac_1/4BitDac_1/3BitDac_1/2BitDac_1/gamma gnd polyResistor w=2 l=62
M1032 5BitDac_1/4BitDac_1/3BitDac_1/2BitDac_1/switchNew_0/a_86_24# D0 VA VA pfet w=10 l=2
+  ad=70 pd=34 as=0 ps=0
M1033 5BitDac_1/4BitDac_1/3BitDac_1/2BitDac_1/switchNew_0/a_105_21# 5BitDac_1/4BitDac_1/3BitDac_1/2BitDac_1/switchNew_0/a_86_24# VA VA pfet w=10 l=2
+  ad=70 pd=34 as=0 ps=0
M1034 5BitDac_1/4BitDac_1/3BitDac_1/2BitDac_1/m1_201_n40# 5BitDac_1/4BitDac_1/3BitDac_1/2BitDac_1/switchNew_0/a_86_24# 5BitDac_1/4BitDac_1/3BitDac_1/2BitDac_1/alpha 5BitDac_1/4BitDac_1/3BitDac_1/2BitDac_1/alpha pfet w=10 l=2
+  ad=0 pd=0 as=70 ps=34
M1035 5BitDac_1/4BitDac_1/3BitDac_1/2BitDac_1/alpha 5BitDac_1/4BitDac_1/3BitDac_1/2BitDac_1/switchNew_0/a_105_21# 5BitDac_1/4BitDac_1/3BitDac_1/2BitDac_1/m1_201_n40# gnd nfet w=5 l=2
+  ad=51 pd=40 as=0 ps=0
M1036 5BitDac_1/4BitDac_1/3BitDac_1/2BitDac_1/switchNew_0/a_86_24# D0 gnd gnd nfet w=5 l=2
+  ad=35 pd=24 as=0 ps=0
M1037 5BitDac_1/4BitDac_1/3BitDac_1/2BitDac_1/switchNew_0/a_105_21# 5BitDac_1/4BitDac_1/3BitDac_1/2BitDac_1/switchNew_0/a_86_24# gnd gnd nfet w=5 l=2
+  ad=35 pd=24 as=0 ps=0
M1038 5BitDac_1/4BitDac_1/3BitDac_1/2BitDac_1/m1_201_n40# 5BitDac_1/4BitDac_1/3BitDac_1/2BitDac_1/switchNew_0/a_86_24# 5BitDac_1/4BitDac_1/3BitDac_1/2BitDac_1/beta gnd nfet w=5 l=2
+  ad=0 pd=0 as=35 ps=24
M1039 5BitDac_1/4BitDac_1/3BitDac_1/2BitDac_1/m1_201_n40# 5BitDac_1/4BitDac_1/3BitDac_1/2BitDac_1/switchNew_0/a_105_21# 5BitDac_1/4BitDac_1/3BitDac_1/2BitDac_1/beta 5BitDac_1/4BitDac_1/3BitDac_1/2BitDac_1/m1_201_n40# pfet w=10 l=2
+  ad=0 pd=0 as=70 ps=34
R1 5BitDac_1/4BitDac_1/3BitDac_1/2BitDac_1/beta 5BitDac_1/4BitDac_1/3BitDac_1/2BitDac_1/gamma polyResistor w=2 l=62
R2 5BitDac_1/4BitDac_1/3BitDac_1/2BitDac_1/alpha 5BitDac_1/4BitDac_1/3BitDac_1/2BitDac_1/beta polyResistor w=2 l=62
R3 5BitDac_1/4BitDac_1/3BitDac_1/2BitDac_0/delta 5BitDac_1/4BitDac_1/3BitDac_1/2BitDac_1/alpha polyResistor w=2 l=62
M1040 5BitDac_1/4BitDac_1/3BitDac_1/switchNew_0/a_86_24# D2 VA VA pfet w=10 l=2
+  ad=70 pd=34 as=0 ps=0
M1041 5BitDac_1/4BitDac_1/3BitDac_1/switchNew_0/a_105_21# 5BitDac_1/4BitDac_1/3BitDac_1/switchNew_0/a_86_24# VA VA pfet w=10 l=2
+  ad=70 pd=34 as=0 ps=0
M1042 5BitDac_1/4BitDac_1/3BitDac_1/V_out3 5BitDac_1/4BitDac_1/3BitDac_1/switchNew_0/a_86_24# 5BitDac_1/4BitDac_1/3BitDac_1/2BitDac_0/V_out2 5BitDac_1/4BitDac_1/3BitDac_1/2BitDac_0/V_out2 pfet w=10 l=2
+  ad=210 pd=102 as=210 ps=102
M1043 5BitDac_1/4BitDac_1/3BitDac_1/2BitDac_0/V_out2 5BitDac_1/4BitDac_1/3BitDac_1/switchNew_0/a_105_21# 5BitDac_1/4BitDac_1/3BitDac_1/V_out3 gnd nfet w=5 l=2
+  ad=137 pd=104 as=121 ps=88
M1044 5BitDac_1/4BitDac_1/3BitDac_1/switchNew_0/a_86_24# D2 gnd gnd nfet w=5 l=2
+  ad=35 pd=24 as=0 ps=0
M1045 5BitDac_1/4BitDac_1/3BitDac_1/switchNew_0/a_105_21# 5BitDac_1/4BitDac_1/3BitDac_1/switchNew_0/a_86_24# gnd gnd nfet w=5 l=2
+  ad=35 pd=24 as=0 ps=0
M1046 5BitDac_1/4BitDac_1/3BitDac_1/V_out3 5BitDac_1/4BitDac_1/3BitDac_1/switchNew_0/a_86_24# 5BitDac_1/4BitDac_1/3BitDac_1/2BitDac_1/V_out2 gnd nfet w=5 l=2
+  ad=0 pd=0 as=0 ps=0
M1047 5BitDac_1/4BitDac_1/3BitDac_1/V_out3 5BitDac_1/4BitDac_1/3BitDac_1/switchNew_0/a_105_21# 5BitDac_1/4BitDac_1/3BitDac_1/2BitDac_1/V_out2 5BitDac_1/4BitDac_1/3BitDac_1/V_out3 pfet w=10 l=2
+  ad=0 pd=0 as=0 ps=0
M1048 5BitDac_1/4BitDac_1/3BitDac_1/2BitDac_0/switchNew_2/a_86_24# D1 VA VA pfet w=10 l=2
+  ad=70 pd=34 as=0 ps=0
M1049 5BitDac_1/4BitDac_1/3BitDac_1/2BitDac_0/switchNew_2/a_105_21# 5BitDac_1/4BitDac_1/3BitDac_1/2BitDac_0/switchNew_2/a_86_24# VA VA pfet w=10 l=2
+  ad=70 pd=34 as=0 ps=0
M1050 5BitDac_1/4BitDac_1/3BitDac_1/2BitDac_0/V_out2 5BitDac_1/4BitDac_1/3BitDac_1/2BitDac_0/switchNew_2/a_86_24# 5BitDac_1/4BitDac_1/3BitDac_1/2BitDac_0/m1_201_n40# 5BitDac_1/4BitDac_1/3BitDac_1/2BitDac_0/m1_201_n40# pfet w=10 l=2
+  ad=0 pd=0 as=210 ps=102
M1051 5BitDac_1/4BitDac_1/3BitDac_1/2BitDac_0/m1_201_n40# 5BitDac_1/4BitDac_1/3BitDac_1/2BitDac_0/switchNew_2/a_105_21# 5BitDac_1/4BitDac_1/3BitDac_1/2BitDac_0/V_out2 gnd nfet w=5 l=2
+  ad=137 pd=104 as=0 ps=0
M1052 5BitDac_1/4BitDac_1/3BitDac_1/2BitDac_0/switchNew_2/a_86_24# D1 gnd gnd nfet w=5 l=2
+  ad=35 pd=24 as=0 ps=0
M1053 5BitDac_1/4BitDac_1/3BitDac_1/2BitDac_0/switchNew_2/a_105_21# 5BitDac_1/4BitDac_1/3BitDac_1/2BitDac_0/switchNew_2/a_86_24# gnd gnd nfet w=5 l=2
+  ad=35 pd=24 as=0 ps=0
M1054 5BitDac_1/4BitDac_1/3BitDac_1/2BitDac_0/V_out2 5BitDac_1/4BitDac_1/3BitDac_1/2BitDac_0/switchNew_2/a_86_24# 5BitDac_1/4BitDac_1/3BitDac_1/2BitDac_0/m1_198_n130# gnd nfet w=5 l=2
+  ad=0 pd=0 as=121 ps=88
M1055 5BitDac_1/4BitDac_1/3BitDac_1/2BitDac_0/V_out2 5BitDac_1/4BitDac_1/3BitDac_1/2BitDac_0/switchNew_2/a_105_21# 5BitDac_1/4BitDac_1/3BitDac_1/2BitDac_0/m1_198_n130# 5BitDac_1/4BitDac_1/3BitDac_1/2BitDac_0/V_out2 pfet w=10 l=2
+  ad=0 pd=0 as=210 ps=102
M1056 5BitDac_1/4BitDac_1/3BitDac_1/2BitDac_0/switchNew_1/a_86_24# D0 VA VA pfet w=10 l=2
+  ad=70 pd=34 as=0 ps=0
M1057 5BitDac_1/4BitDac_1/3BitDac_1/2BitDac_0/switchNew_1/a_105_21# 5BitDac_1/4BitDac_1/3BitDac_1/2BitDac_0/switchNew_1/a_86_24# VA VA pfet w=10 l=2
+  ad=70 pd=34 as=0 ps=0
M1058 5BitDac_1/4BitDac_1/3BitDac_1/2BitDac_0/m1_198_n130# 5BitDac_1/4BitDac_1/3BitDac_1/2BitDac_0/switchNew_1/a_86_24# 5BitDac_1/4BitDac_1/3BitDac_1/2BitDac_0/gamma 5BitDac_1/4BitDac_1/3BitDac_1/2BitDac_0/gamma pfet w=10 l=2
+  ad=0 pd=0 as=70 ps=34
M1059 5BitDac_1/4BitDac_1/3BitDac_1/2BitDac_0/gamma 5BitDac_1/4BitDac_1/3BitDac_1/2BitDac_0/switchNew_1/a_105_21# 5BitDac_1/4BitDac_1/3BitDac_1/2BitDac_0/m1_198_n130# gnd nfet w=5 l=2
+  ad=51 pd=40 as=0 ps=0
M1060 5BitDac_1/4BitDac_1/3BitDac_1/2BitDac_0/switchNew_1/a_86_24# D0 gnd gnd nfet w=5 l=2
+  ad=35 pd=24 as=0 ps=0
M1061 5BitDac_1/4BitDac_1/3BitDac_1/2BitDac_0/switchNew_1/a_105_21# 5BitDac_1/4BitDac_1/3BitDac_1/2BitDac_0/switchNew_1/a_86_24# gnd gnd nfet w=5 l=2
+  ad=35 pd=24 as=0 ps=0
M1062 5BitDac_1/4BitDac_1/3BitDac_1/2BitDac_0/m1_198_n130# 5BitDac_1/4BitDac_1/3BitDac_1/2BitDac_0/switchNew_1/a_86_24# 5BitDac_1/4BitDac_1/3BitDac_1/2BitDac_0/delta gnd nfet w=5 l=2
+  ad=0 pd=0 as=35 ps=24
M1063 5BitDac_1/4BitDac_1/3BitDac_1/2BitDac_0/m1_198_n130# 5BitDac_1/4BitDac_1/3BitDac_1/2BitDac_0/switchNew_1/a_105_21# 5BitDac_1/4BitDac_1/3BitDac_1/2BitDac_0/delta 5BitDac_1/4BitDac_1/3BitDac_1/2BitDac_0/m1_198_n130# pfet w=10 l=2
+  ad=0 pd=0 as=70 ps=34
R4 5BitDac_1/4BitDac_1/3BitDac_1/2BitDac_0/gamma 5BitDac_1/4BitDac_1/3BitDac_1/2BitDac_0/delta polyResistor w=2 l=62
M1064 5BitDac_1/4BitDac_1/3BitDac_1/2BitDac_0/switchNew_0/a_86_24# D0 VA VA pfet w=10 l=2
+  ad=70 pd=34 as=0 ps=0
M1065 5BitDac_1/4BitDac_1/3BitDac_1/2BitDac_0/switchNew_0/a_105_21# 5BitDac_1/4BitDac_1/3BitDac_1/2BitDac_0/switchNew_0/a_86_24# VA VA pfet w=10 l=2
+  ad=70 pd=34 as=0 ps=0
M1066 5BitDac_1/4BitDac_1/3BitDac_1/2BitDac_0/m1_201_n40# 5BitDac_1/4BitDac_1/3BitDac_1/2BitDac_0/switchNew_0/a_86_24# 5BitDac_1/4BitDac_1/3BitDac_1/2BitDac_0/alpha 5BitDac_1/4BitDac_1/3BitDac_1/2BitDac_0/alpha pfet w=10 l=2
+  ad=0 pd=0 as=70 ps=34
M1067 5BitDac_1/4BitDac_1/3BitDac_1/2BitDac_0/alpha 5BitDac_1/4BitDac_1/3BitDac_1/2BitDac_0/switchNew_0/a_105_21# 5BitDac_1/4BitDac_1/3BitDac_1/2BitDac_0/m1_201_n40# gnd nfet w=5 l=2
+  ad=51 pd=40 as=0 ps=0
M1068 5BitDac_1/4BitDac_1/3BitDac_1/2BitDac_0/switchNew_0/a_86_24# D0 gnd gnd nfet w=5 l=2
+  ad=35 pd=24 as=0 ps=0
M1069 5BitDac_1/4BitDac_1/3BitDac_1/2BitDac_0/switchNew_0/a_105_21# 5BitDac_1/4BitDac_1/3BitDac_1/2BitDac_0/switchNew_0/a_86_24# gnd gnd nfet w=5 l=2
+  ad=35 pd=24 as=0 ps=0
M1070 5BitDac_1/4BitDac_1/3BitDac_1/2BitDac_0/m1_201_n40# 5BitDac_1/4BitDac_1/3BitDac_1/2BitDac_0/switchNew_0/a_86_24# 5BitDac_1/4BitDac_1/3BitDac_1/2BitDac_0/beta gnd nfet w=5 l=2
+  ad=0 pd=0 as=35 ps=24
M1071 5BitDac_1/4BitDac_1/3BitDac_1/2BitDac_0/m1_201_n40# 5BitDac_1/4BitDac_1/3BitDac_1/2BitDac_0/switchNew_0/a_105_21# 5BitDac_1/4BitDac_1/3BitDac_1/2BitDac_0/beta 5BitDac_1/4BitDac_1/3BitDac_1/2BitDac_0/m1_201_n40# pfet w=10 l=2
+  ad=0 pd=0 as=70 ps=34
R5 5BitDac_1/4BitDac_1/3BitDac_1/2BitDac_0/beta 5BitDac_1/4BitDac_1/3BitDac_1/2BitDac_0/gamma polyResistor w=2 l=62
R6 5BitDac_1/4BitDac_1/3BitDac_1/2BitDac_0/alpha 5BitDac_1/4BitDac_1/3BitDac_1/2BitDac_0/beta polyResistor w=2 l=62
R7 5BitDac_1/4BitDac_1/3BitDac_1/R_in3 5BitDac_1/4BitDac_1/3BitDac_1/2BitDac_0/alpha polyResistor w=2 l=62
M1072 5BitDac_1/4BitDac_1/switchNew_0/a_86_24# D3 VA VA pfet w=10 l=2
+  ad=70 pd=34 as=0 ps=0
M1073 5BitDac_1/4BitDac_1/switchNew_0/a_105_21# 5BitDac_1/4BitDac_1/switchNew_0/a_86_24# VA VA pfet w=10 l=2
+  ad=70 pd=34 as=0 ps=0
M1074 5BitDac_1/4BitDac_1/V_out4 5BitDac_1/4BitDac_1/switchNew_0/a_86_24# 5BitDac_1/4BitDac_1/3BitDac_0/V_out3 5BitDac_1/4BitDac_1/3BitDac_0/V_out3 pfet w=10 l=2
+  ad=0 pd=0 as=210 ps=102
M1075 5BitDac_1/4BitDac_1/3BitDac_0/V_out3 5BitDac_1/4BitDac_1/switchNew_0/a_105_21# 5BitDac_1/4BitDac_1/V_out4 gnd nfet w=5 l=2
+  ad=137 pd=104 as=0 ps=0
M1076 5BitDac_1/4BitDac_1/switchNew_0/a_86_24# D3 gnd gnd nfet w=5 l=2
+  ad=35 pd=24 as=0 ps=0
M1077 5BitDac_1/4BitDac_1/switchNew_0/a_105_21# 5BitDac_1/4BitDac_1/switchNew_0/a_86_24# gnd gnd nfet w=5 l=2
+  ad=35 pd=24 as=0 ps=0
M1078 5BitDac_1/4BitDac_1/V_out4 5BitDac_1/4BitDac_1/switchNew_0/a_86_24# 5BitDac_1/4BitDac_1/3BitDac_1/V_out3 gnd nfet w=5 l=2
+  ad=0 pd=0 as=0 ps=0
M1079 5BitDac_1/4BitDac_1/V_out4 5BitDac_1/4BitDac_1/switchNew_0/a_105_21# 5BitDac_1/4BitDac_1/3BitDac_1/V_out3 5BitDac_1/4BitDac_1/V_out4 pfet w=10 l=2
+  ad=0 pd=0 as=0 ps=0
M1080 5BitDac_1/4BitDac_1/3BitDac_0/2BitDac_1/switchNew_2/a_86_24# D1 VA VA pfet w=10 l=2
+  ad=70 pd=34 as=0 ps=0
M1081 5BitDac_1/4BitDac_1/3BitDac_0/2BitDac_1/switchNew_2/a_105_21# 5BitDac_1/4BitDac_1/3BitDac_0/2BitDac_1/switchNew_2/a_86_24# VA VA pfet w=10 l=2
+  ad=70 pd=34 as=0 ps=0
M1082 5BitDac_1/4BitDac_1/3BitDac_0/2BitDac_1/V_out2 5BitDac_1/4BitDac_1/3BitDac_0/2BitDac_1/switchNew_2/a_86_24# 5BitDac_1/4BitDac_1/3BitDac_0/2BitDac_1/m1_201_n40# 5BitDac_1/4BitDac_1/3BitDac_0/2BitDac_1/m1_201_n40# pfet w=10 l=2
+  ad=210 pd=102 as=210 ps=102
M1083 5BitDac_1/4BitDac_1/3BitDac_0/2BitDac_1/m1_201_n40# 5BitDac_1/4BitDac_1/3BitDac_0/2BitDac_1/switchNew_2/a_105_21# 5BitDac_1/4BitDac_1/3BitDac_0/2BitDac_1/V_out2 gnd nfet w=5 l=2
+  ad=137 pd=104 as=121 ps=88
M1084 5BitDac_1/4BitDac_1/3BitDac_0/2BitDac_1/switchNew_2/a_86_24# D1 gnd gnd nfet w=5 l=2
+  ad=35 pd=24 as=0 ps=0
M1085 5BitDac_1/4BitDac_1/3BitDac_0/2BitDac_1/switchNew_2/a_105_21# 5BitDac_1/4BitDac_1/3BitDac_0/2BitDac_1/switchNew_2/a_86_24# gnd gnd nfet w=5 l=2
+  ad=35 pd=24 as=0 ps=0
M1086 5BitDac_1/4BitDac_1/3BitDac_0/2BitDac_1/V_out2 5BitDac_1/4BitDac_1/3BitDac_0/2BitDac_1/switchNew_2/a_86_24# 5BitDac_1/4BitDac_1/3BitDac_0/2BitDac_1/m1_198_n130# gnd nfet w=5 l=2
+  ad=0 pd=0 as=121 ps=88
M1087 5BitDac_1/4BitDac_1/3BitDac_0/2BitDac_1/V_out2 5BitDac_1/4BitDac_1/3BitDac_0/2BitDac_1/switchNew_2/a_105_21# 5BitDac_1/4BitDac_1/3BitDac_0/2BitDac_1/m1_198_n130# 5BitDac_1/4BitDac_1/3BitDac_0/2BitDac_1/V_out2 pfet w=10 l=2
+  ad=0 pd=0 as=210 ps=102
M1088 5BitDac_1/4BitDac_1/3BitDac_0/2BitDac_1/switchNew_1/a_86_24# D0 VA VA pfet w=10 l=2
+  ad=70 pd=34 as=0 ps=0
M1089 5BitDac_1/4BitDac_1/3BitDac_0/2BitDac_1/switchNew_1/a_105_21# 5BitDac_1/4BitDac_1/3BitDac_0/2BitDac_1/switchNew_1/a_86_24# VA VA pfet w=10 l=2
+  ad=70 pd=34 as=0 ps=0
M1090 5BitDac_1/4BitDac_1/3BitDac_0/2BitDac_1/m1_198_n130# 5BitDac_1/4BitDac_1/3BitDac_0/2BitDac_1/switchNew_1/a_86_24# 5BitDac_1/4BitDac_1/3BitDac_0/2BitDac_1/gamma 5BitDac_1/4BitDac_1/3BitDac_0/2BitDac_1/gamma pfet w=10 l=2
+  ad=0 pd=0 as=70 ps=34
M1091 5BitDac_1/4BitDac_1/3BitDac_0/2BitDac_1/gamma 5BitDac_1/4BitDac_1/3BitDac_0/2BitDac_1/switchNew_1/a_105_21# 5BitDac_1/4BitDac_1/3BitDac_0/2BitDac_1/m1_198_n130# gnd nfet w=5 l=2
+  ad=51 pd=40 as=0 ps=0
M1092 5BitDac_1/4BitDac_1/3BitDac_0/2BitDac_1/switchNew_1/a_86_24# D0 gnd gnd nfet w=5 l=2
+  ad=35 pd=24 as=0 ps=0
M1093 5BitDac_1/4BitDac_1/3BitDac_0/2BitDac_1/switchNew_1/a_105_21# 5BitDac_1/4BitDac_1/3BitDac_0/2BitDac_1/switchNew_1/a_86_24# gnd gnd nfet w=5 l=2
+  ad=35 pd=24 as=0 ps=0
M1094 5BitDac_1/4BitDac_1/3BitDac_0/2BitDac_1/m1_198_n130# 5BitDac_1/4BitDac_1/3BitDac_0/2BitDac_1/switchNew_1/a_86_24# 5BitDac_1/4BitDac_1/3BitDac_1/R_in3 gnd nfet w=5 l=2
+  ad=0 pd=0 as=35 ps=24
M1095 5BitDac_1/4BitDac_1/3BitDac_0/2BitDac_1/m1_198_n130# 5BitDac_1/4BitDac_1/3BitDac_0/2BitDac_1/switchNew_1/a_105_21# 5BitDac_1/4BitDac_1/3BitDac_1/R_in3 5BitDac_1/4BitDac_1/3BitDac_0/2BitDac_1/m1_198_n130# pfet w=10 l=2
+  ad=0 pd=0 as=70 ps=34
R8 5BitDac_1/4BitDac_1/3BitDac_0/2BitDac_1/gamma 5BitDac_1/4BitDac_1/3BitDac_1/R_in3 polyResistor w=2 l=62
M1096 5BitDac_1/4BitDac_1/3BitDac_0/2BitDac_1/switchNew_0/a_86_24# D0 VA VA pfet w=10 l=2
+  ad=70 pd=34 as=0 ps=0
M1097 5BitDac_1/4BitDac_1/3BitDac_0/2BitDac_1/switchNew_0/a_105_21# 5BitDac_1/4BitDac_1/3BitDac_0/2BitDac_1/switchNew_0/a_86_24# VA VA pfet w=10 l=2
+  ad=70 pd=34 as=0 ps=0
M1098 5BitDac_1/4BitDac_1/3BitDac_0/2BitDac_1/m1_201_n40# 5BitDac_1/4BitDac_1/3BitDac_0/2BitDac_1/switchNew_0/a_86_24# 5BitDac_1/4BitDac_1/3BitDac_0/2BitDac_1/alpha 5BitDac_1/4BitDac_1/3BitDac_0/2BitDac_1/alpha pfet w=10 l=2
+  ad=0 pd=0 as=70 ps=34
M1099 5BitDac_1/4BitDac_1/3BitDac_0/2BitDac_1/alpha 5BitDac_1/4BitDac_1/3BitDac_0/2BitDac_1/switchNew_0/a_105_21# 5BitDac_1/4BitDac_1/3BitDac_0/2BitDac_1/m1_201_n40# gnd nfet w=5 l=2
+  ad=51 pd=40 as=0 ps=0
M1100 5BitDac_1/4BitDac_1/3BitDac_0/2BitDac_1/switchNew_0/a_86_24# D0 gnd gnd nfet w=5 l=2
+  ad=35 pd=24 as=0 ps=0
M1101 5BitDac_1/4BitDac_1/3BitDac_0/2BitDac_1/switchNew_0/a_105_21# 5BitDac_1/4BitDac_1/3BitDac_0/2BitDac_1/switchNew_0/a_86_24# gnd gnd nfet w=5 l=2
+  ad=35 pd=24 as=0 ps=0
M1102 5BitDac_1/4BitDac_1/3BitDac_0/2BitDac_1/m1_201_n40# 5BitDac_1/4BitDac_1/3BitDac_0/2BitDac_1/switchNew_0/a_86_24# 5BitDac_1/4BitDac_1/3BitDac_0/2BitDac_1/beta gnd nfet w=5 l=2
+  ad=0 pd=0 as=35 ps=24
M1103 5BitDac_1/4BitDac_1/3BitDac_0/2BitDac_1/m1_201_n40# 5BitDac_1/4BitDac_1/3BitDac_0/2BitDac_1/switchNew_0/a_105_21# 5BitDac_1/4BitDac_1/3BitDac_0/2BitDac_1/beta 5BitDac_1/4BitDac_1/3BitDac_0/2BitDac_1/m1_201_n40# pfet w=10 l=2
+  ad=0 pd=0 as=70 ps=34
R9 5BitDac_1/4BitDac_1/3BitDac_0/2BitDac_1/beta 5BitDac_1/4BitDac_1/3BitDac_0/2BitDac_1/gamma polyResistor w=2 l=62
R10 5BitDac_1/4BitDac_1/3BitDac_0/2BitDac_1/alpha 5BitDac_1/4BitDac_1/3BitDac_0/2BitDac_1/beta polyResistor w=2 l=62
R11 5BitDac_1/4BitDac_1/3BitDac_0/2BitDac_0/delta 5BitDac_1/4BitDac_1/3BitDac_0/2BitDac_1/alpha polyResistor w=2 l=62
M1104 5BitDac_1/4BitDac_1/3BitDac_0/switchNew_0/a_86_24# D2 VA VA pfet w=10 l=2
+  ad=70 pd=34 as=0 ps=0
M1105 5BitDac_1/4BitDac_1/3BitDac_0/switchNew_0/a_105_21# 5BitDac_1/4BitDac_1/3BitDac_0/switchNew_0/a_86_24# VA VA pfet w=10 l=2
+  ad=70 pd=34 as=0 ps=0
M1106 5BitDac_1/4BitDac_1/3BitDac_0/V_out3 5BitDac_1/4BitDac_1/3BitDac_0/switchNew_0/a_86_24# 5BitDac_1/4BitDac_1/3BitDac_0/2BitDac_0/V_out2 5BitDac_1/4BitDac_1/3BitDac_0/2BitDac_0/V_out2 pfet w=10 l=2
+  ad=0 pd=0 as=210 ps=102
M1107 5BitDac_1/4BitDac_1/3BitDac_0/2BitDac_0/V_out2 5BitDac_1/4BitDac_1/3BitDac_0/switchNew_0/a_105_21# 5BitDac_1/4BitDac_1/3BitDac_0/V_out3 gnd nfet w=5 l=2
+  ad=137 pd=104 as=0 ps=0
M1108 5BitDac_1/4BitDac_1/3BitDac_0/switchNew_0/a_86_24# D2 gnd gnd nfet w=5 l=2
+  ad=35 pd=24 as=0 ps=0
M1109 5BitDac_1/4BitDac_1/3BitDac_0/switchNew_0/a_105_21# 5BitDac_1/4BitDac_1/3BitDac_0/switchNew_0/a_86_24# gnd gnd nfet w=5 l=2
+  ad=35 pd=24 as=0 ps=0
M1110 5BitDac_1/4BitDac_1/3BitDac_0/V_out3 5BitDac_1/4BitDac_1/3BitDac_0/switchNew_0/a_86_24# 5BitDac_1/4BitDac_1/3BitDac_0/2BitDac_1/V_out2 gnd nfet w=5 l=2
+  ad=0 pd=0 as=0 ps=0
M1111 5BitDac_1/4BitDac_1/3BitDac_0/V_out3 5BitDac_1/4BitDac_1/3BitDac_0/switchNew_0/a_105_21# 5BitDac_1/4BitDac_1/3BitDac_0/2BitDac_1/V_out2 5BitDac_1/4BitDac_1/3BitDac_0/V_out3 pfet w=10 l=2
+  ad=0 pd=0 as=0 ps=0
M1112 5BitDac_1/4BitDac_1/3BitDac_0/2BitDac_0/switchNew_2/a_86_24# D1 VA VA pfet w=10 l=2
+  ad=70 pd=34 as=0 ps=0
M1113 5BitDac_1/4BitDac_1/3BitDac_0/2BitDac_0/switchNew_2/a_105_21# 5BitDac_1/4BitDac_1/3BitDac_0/2BitDac_0/switchNew_2/a_86_24# VA VA pfet w=10 l=2
+  ad=70 pd=34 as=0 ps=0
M1114 5BitDac_1/4BitDac_1/3BitDac_0/2BitDac_0/V_out2 5BitDac_1/4BitDac_1/3BitDac_0/2BitDac_0/switchNew_2/a_86_24# 5BitDac_1/4BitDac_1/3BitDac_0/2BitDac_0/m1_201_n40# 5BitDac_1/4BitDac_1/3BitDac_0/2BitDac_0/m1_201_n40# pfet w=10 l=2
+  ad=0 pd=0 as=210 ps=102
M1115 5BitDac_1/4BitDac_1/3BitDac_0/2BitDac_0/m1_201_n40# 5BitDac_1/4BitDac_1/3BitDac_0/2BitDac_0/switchNew_2/a_105_21# 5BitDac_1/4BitDac_1/3BitDac_0/2BitDac_0/V_out2 gnd nfet w=5 l=2
+  ad=137 pd=104 as=0 ps=0
M1116 5BitDac_1/4BitDac_1/3BitDac_0/2BitDac_0/switchNew_2/a_86_24# D1 gnd gnd nfet w=5 l=2
+  ad=35 pd=24 as=0 ps=0
M1117 5BitDac_1/4BitDac_1/3BitDac_0/2BitDac_0/switchNew_2/a_105_21# 5BitDac_1/4BitDac_1/3BitDac_0/2BitDac_0/switchNew_2/a_86_24# gnd gnd nfet w=5 l=2
+  ad=35 pd=24 as=0 ps=0
M1118 5BitDac_1/4BitDac_1/3BitDac_0/2BitDac_0/V_out2 5BitDac_1/4BitDac_1/3BitDac_0/2BitDac_0/switchNew_2/a_86_24# 5BitDac_1/4BitDac_1/3BitDac_0/2BitDac_0/m1_198_n130# gnd nfet w=5 l=2
+  ad=0 pd=0 as=121 ps=88
M1119 5BitDac_1/4BitDac_1/3BitDac_0/2BitDac_0/V_out2 5BitDac_1/4BitDac_1/3BitDac_0/2BitDac_0/switchNew_2/a_105_21# 5BitDac_1/4BitDac_1/3BitDac_0/2BitDac_0/m1_198_n130# 5BitDac_1/4BitDac_1/3BitDac_0/2BitDac_0/V_out2 pfet w=10 l=2
+  ad=0 pd=0 as=210 ps=102
M1120 5BitDac_1/4BitDac_1/3BitDac_0/2BitDac_0/switchNew_1/a_86_24# D0 VA VA pfet w=10 l=2
+  ad=70 pd=34 as=0 ps=0
M1121 5BitDac_1/4BitDac_1/3BitDac_0/2BitDac_0/switchNew_1/a_105_21# 5BitDac_1/4BitDac_1/3BitDac_0/2BitDac_0/switchNew_1/a_86_24# VA VA pfet w=10 l=2
+  ad=70 pd=34 as=0 ps=0
M1122 5BitDac_1/4BitDac_1/3BitDac_0/2BitDac_0/m1_198_n130# 5BitDac_1/4BitDac_1/3BitDac_0/2BitDac_0/switchNew_1/a_86_24# 5BitDac_1/4BitDac_1/3BitDac_0/2BitDac_0/gamma 5BitDac_1/4BitDac_1/3BitDac_0/2BitDac_0/gamma pfet w=10 l=2
+  ad=0 pd=0 as=70 ps=34
M1123 5BitDac_1/4BitDac_1/3BitDac_0/2BitDac_0/gamma 5BitDac_1/4BitDac_1/3BitDac_0/2BitDac_0/switchNew_1/a_105_21# 5BitDac_1/4BitDac_1/3BitDac_0/2BitDac_0/m1_198_n130# gnd nfet w=5 l=2
+  ad=51 pd=40 as=0 ps=0
M1124 5BitDac_1/4BitDac_1/3BitDac_0/2BitDac_0/switchNew_1/a_86_24# D0 gnd gnd nfet w=5 l=2
+  ad=35 pd=24 as=0 ps=0
M1125 5BitDac_1/4BitDac_1/3BitDac_0/2BitDac_0/switchNew_1/a_105_21# 5BitDac_1/4BitDac_1/3BitDac_0/2BitDac_0/switchNew_1/a_86_24# gnd gnd nfet w=5 l=2
+  ad=35 pd=24 as=0 ps=0
M1126 5BitDac_1/4BitDac_1/3BitDac_0/2BitDac_0/m1_198_n130# 5BitDac_1/4BitDac_1/3BitDac_0/2BitDac_0/switchNew_1/a_86_24# 5BitDac_1/4BitDac_1/3BitDac_0/2BitDac_0/delta gnd nfet w=5 l=2
+  ad=0 pd=0 as=35 ps=24
M1127 5BitDac_1/4BitDac_1/3BitDac_0/2BitDac_0/m1_198_n130# 5BitDac_1/4BitDac_1/3BitDac_0/2BitDac_0/switchNew_1/a_105_21# 5BitDac_1/4BitDac_1/3BitDac_0/2BitDac_0/delta 5BitDac_1/4BitDac_1/3BitDac_0/2BitDac_0/m1_198_n130# pfet w=10 l=2
+  ad=0 pd=0 as=70 ps=34
R12 5BitDac_1/4BitDac_1/3BitDac_0/2BitDac_0/gamma 5BitDac_1/4BitDac_1/3BitDac_0/2BitDac_0/delta polyResistor w=2 l=62
M1128 5BitDac_1/4BitDac_1/3BitDac_0/2BitDac_0/switchNew_0/a_86_24# D0 VA VA pfet w=10 l=2
+  ad=70 pd=34 as=0 ps=0
M1129 5BitDac_1/4BitDac_1/3BitDac_0/2BitDac_0/switchNew_0/a_105_21# 5BitDac_1/4BitDac_1/3BitDac_0/2BitDac_0/switchNew_0/a_86_24# VA VA pfet w=10 l=2
+  ad=70 pd=34 as=0 ps=0
M1130 5BitDac_1/4BitDac_1/3BitDac_0/2BitDac_0/m1_201_n40# 5BitDac_1/4BitDac_1/3BitDac_0/2BitDac_0/switchNew_0/a_86_24# 5BitDac_1/4BitDac_1/3BitDac_0/2BitDac_0/alpha 5BitDac_1/4BitDac_1/3BitDac_0/2BitDac_0/alpha pfet w=10 l=2
+  ad=0 pd=0 as=70 ps=34
M1131 5BitDac_1/4BitDac_1/3BitDac_0/2BitDac_0/alpha 5BitDac_1/4BitDac_1/3BitDac_0/2BitDac_0/switchNew_0/a_105_21# 5BitDac_1/4BitDac_1/3BitDac_0/2BitDac_0/m1_201_n40# gnd nfet w=5 l=2
+  ad=51 pd=40 as=0 ps=0
M1132 5BitDac_1/4BitDac_1/3BitDac_0/2BitDac_0/switchNew_0/a_86_24# D0 gnd gnd nfet w=5 l=2
+  ad=35 pd=24 as=0 ps=0
M1133 5BitDac_1/4BitDac_1/3BitDac_0/2BitDac_0/switchNew_0/a_105_21# 5BitDac_1/4BitDac_1/3BitDac_0/2BitDac_0/switchNew_0/a_86_24# gnd gnd nfet w=5 l=2
+  ad=35 pd=24 as=0 ps=0
M1134 5BitDac_1/4BitDac_1/3BitDac_0/2BitDac_0/m1_201_n40# 5BitDac_1/4BitDac_1/3BitDac_0/2BitDac_0/switchNew_0/a_86_24# 5BitDac_1/4BitDac_1/3BitDac_0/2BitDac_0/beta gnd nfet w=5 l=2
+  ad=0 pd=0 as=35 ps=24
M1135 5BitDac_1/4BitDac_1/3BitDac_0/2BitDac_0/m1_201_n40# 5BitDac_1/4BitDac_1/3BitDac_0/2BitDac_0/switchNew_0/a_105_21# 5BitDac_1/4BitDac_1/3BitDac_0/2BitDac_0/beta 5BitDac_1/4BitDac_1/3BitDac_0/2BitDac_0/m1_201_n40# pfet w=10 l=2
+  ad=0 pd=0 as=70 ps=34
R13 5BitDac_1/4BitDac_1/3BitDac_0/2BitDac_0/beta 5BitDac_1/4BitDac_1/3BitDac_0/2BitDac_0/gamma polyResistor w=2 l=62
R14 5BitDac_1/4BitDac_1/3BitDac_0/2BitDac_0/alpha 5BitDac_1/4BitDac_1/3BitDac_0/2BitDac_0/beta polyResistor w=2 l=62
R15 5BitDac_1/4BitDac_1/R_in4 5BitDac_1/4BitDac_1/3BitDac_0/2BitDac_0/alpha polyResistor w=2 l=62
M1136 5BitDac_1/4BitDac_0/3BitDac_1/2BitDac_1/switchNew_2/a_86_24# D1 VA VA pfet w=10 l=2
+  ad=70 pd=34 as=0 ps=0
M1137 5BitDac_1/4BitDac_0/3BitDac_1/2BitDac_1/switchNew_2/a_105_21# 5BitDac_1/4BitDac_0/3BitDac_1/2BitDac_1/switchNew_2/a_86_24# VA VA pfet w=10 l=2
+  ad=70 pd=34 as=0 ps=0
M1138 5BitDac_1/4BitDac_0/3BitDac_1/2BitDac_1/V_out2 5BitDac_1/4BitDac_0/3BitDac_1/2BitDac_1/switchNew_2/a_86_24# 5BitDac_1/4BitDac_0/3BitDac_1/2BitDac_1/m1_201_n40# 5BitDac_1/4BitDac_0/3BitDac_1/2BitDac_1/m1_201_n40# pfet w=10 l=2
+  ad=210 pd=102 as=210 ps=102
M1139 5BitDac_1/4BitDac_0/3BitDac_1/2BitDac_1/m1_201_n40# 5BitDac_1/4BitDac_0/3BitDac_1/2BitDac_1/switchNew_2/a_105_21# 5BitDac_1/4BitDac_0/3BitDac_1/2BitDac_1/V_out2 gnd nfet w=5 l=2
+  ad=137 pd=104 as=121 ps=88
M1140 5BitDac_1/4BitDac_0/3BitDac_1/2BitDac_1/switchNew_2/a_86_24# D1 gnd gnd nfet w=5 l=2
+  ad=35 pd=24 as=0 ps=0
M1141 5BitDac_1/4BitDac_0/3BitDac_1/2BitDac_1/switchNew_2/a_105_21# 5BitDac_1/4BitDac_0/3BitDac_1/2BitDac_1/switchNew_2/a_86_24# gnd gnd nfet w=5 l=2
+  ad=35 pd=24 as=0 ps=0
M1142 5BitDac_1/4BitDac_0/3BitDac_1/2BitDac_1/V_out2 5BitDac_1/4BitDac_0/3BitDac_1/2BitDac_1/switchNew_2/a_86_24# 5BitDac_1/4BitDac_0/3BitDac_1/2BitDac_1/m1_198_n130# gnd nfet w=5 l=2
+  ad=0 pd=0 as=121 ps=88
M1143 5BitDac_1/4BitDac_0/3BitDac_1/2BitDac_1/V_out2 5BitDac_1/4BitDac_0/3BitDac_1/2BitDac_1/switchNew_2/a_105_21# 5BitDac_1/4BitDac_0/3BitDac_1/2BitDac_1/m1_198_n130# 5BitDac_1/4BitDac_0/3BitDac_1/2BitDac_1/V_out2 pfet w=10 l=2
+  ad=0 pd=0 as=210 ps=102
M1144 5BitDac_1/4BitDac_0/3BitDac_1/2BitDac_1/switchNew_1/a_86_24# D0 VA VA pfet w=10 l=2
+  ad=70 pd=34 as=0 ps=0
M1145 5BitDac_1/4BitDac_0/3BitDac_1/2BitDac_1/switchNew_1/a_105_21# 5BitDac_1/4BitDac_0/3BitDac_1/2BitDac_1/switchNew_1/a_86_24# VA VA pfet w=10 l=2
+  ad=70 pd=34 as=0 ps=0