Version 4
SHEET 1 880 680
WIRE 160 -48 160 -80
WIRE 112 -16 64 -16
WIRE 64 0 64 -16
WIRE 64 0 -32 0
WIRE 112 0 80 0
WIRE 288 0 224 0
WIRE 112 16 96 16
WIRE 288 48 288 0
WIRE 256 80 256 -80
WIRE 352 80 320 80
WIRE 160 128 160 48
WIRE 80 144 80 0
WIRE 80 144 -32 144
WIRE 64 160 64 0
WIRE 112 160 64 160
WIRE 80 176 80 144
WIRE 112 176 80 176
WIRE 288 176 288 112
WIRE 288 176 224 176
WIRE 96 192 96 16
WIRE 112 192 96 192
WIRE 96 288 96 192
WIRE 96 288 -32 288
WIRE 160 288 160 224
FLAG 352 80 V_out4
FLAG 256 -80 D3
FLAG 160 -80 R_in4
FLAG -32 0 D0
FLAG -32 144 D1
FLAG -32 288 D2
FLAG 160 288 R_out4
SYMBOL 3_bit_dac 176 0 R0
SYMATTR InstName X1
SYMBOL 3_bit_dac 176 176 R0
SYMATTR InstName X2
SYMBOL switch 288 80 R0
SYMATTR InstName X5
