Version 4
SHEET 1 880 1164
WIRE 288 32 288 -16
WIRE 32 64 0 64
WIRE 144 64 32 64
WIRE 144 80 48 80
WIRE -80 96 -96 96
WIRE 0 96 0 64
WIRE 0 96 -80 96
WIRE 144 96 64 96
WIRE 144 112 80 112
WIRE 432 112 416 112
WIRE 144 128 96 128
WIRE 144 144 112 144
WIRE 144 192 144 160
WIRE 176 192 144 192
WIRE 288 192 272 192
WIRE 432 208 432 112
WIRE 400 240 400 32
WIRE 592 240 464 240
WIRE 272 272 272 192
WIRE 272 288 272 272
WIRE 32 304 32 64
WIRE 128 304 32 304
WIRE 48 320 48 80
WIRE 48 320 -96 320
WIRE 128 320 48 320
WIRE 64 336 64 96
WIRE 128 336 64 336
WIRE 80 352 80 112
WIRE 128 352 80 352
WIRE 432 352 432 272
WIRE 432 352 400 352
WIRE 96 368 96 128
WIRE 128 368 96 368
WIRE 64 384 64 336
WIRE 64 384 -96 384
WIRE 112 384 112 144
WIRE 128 384 112 384
WIRE 272 432 256 432
WIRE 256 480 256 432
WIRE 128 496 128 400
WIRE 176 496 176 192
WIRE 176 496 128 496
WIRE 80 528 80 352
WIRE 80 528 -96 528
WIRE 96 736 96 368
WIRE 96 736 -96 736
WIRE 112 896 112 384
WIRE 112 896 -80 896
WIRE -48 1104 -64 1104
WIRE 128 1104 128 496
WIRE 128 1104 -48 1104
FLAG 592 240 V_out8
FLAG -80 96 D0
FLAG -96 320 D1
FLAG -96 384 D2
FLAG -96 528 D3
FLAG 288 -16 R_in8
FLAG 400 32 D7
FLAG 256 480 R_out8
FLAG -96 736 D4
FLAG -80 896 D5
FLAG -48 1104 D6
SYMBOL switch 432 240 R0
SYMATTR InstName X3
SYMBOL 7_bit_dac 224 112 R0
SYMATTR InstName X1
SYMBOL 7_bit_dac 208 352 R0
SYMATTR InstName X2
